FLP
     RDKit          3D

 31 32  0  0  1  0  0  0  0  0999 V2000
  -24.2262   53.2890   11.3804 C   0  0  0  0  0  0  0  0  0  0  0  0
  -23.3689   52.1919   11.2561 C   0  0  0  0  0  0  0  0  0  0  0  0
  -22.2868   52.2117   10.3598 C   0  0  0  0  0  0  0  0  0  0  0  0
  -22.0940   53.3744    9.5929 C   0  0  0  0  0  0  0  0  0  0  0  0
  -22.9499   54.4728    9.7159 C   0  0  0  0  0  0  0  0  0  0  0  0
  -24.0165   54.4288   10.6093 C   0  0  0  0  0  0  0  0  0  0  0  0
  -21.3882   51.0513   10.2206 C   0  0  0  0  0  0  0  0  0  0  0  0
  -21.0874   50.5208    8.9546 C   0  0  0  0  0  0  0  0  0  0  0  0
  -20.2349   49.4188    8.8101 C   0  0  0  0  0  0  0  0  0  0  0  0
  -19.6536   48.8097    9.9310 C   0  0  0  0  0  0  0  0  0  0  0  0
  -19.9506   49.3284   11.1970 C   0  0  0  0  0  0  0  0  0  0  0  0
  -20.8020   50.4272   11.3310 C   0  0  0  0  0  0  0  0  0  0  0  0
  -18.7267   47.6155    9.7959 C   0  0  2  0  0  0  0  0  0  0  0  0
  -17.4534   47.9675    9.0238 C   0  0  0  0  0  0  0  0  0  0  0  0
  -19.4237   46.4310    9.1519 C   0  0  0  0  0  0  0  0  0  0  0  0
  -19.4405   46.1435    7.9656 O   0  0  0  0  0  0  0  0  0  0  0  0
  -20.0929   45.6714   10.0444 O   0  0  0  0  0  0  0  0  0  0  0  0
  -21.0408   50.8842   12.5707 F   0  0  0  0  0  0  0  0  0  0  0  0
  -25.0557   53.2505   12.0815 H   0  0  0  0  0  0  0  0  0  0  0  0
  -23.5552   51.3114   11.8684 H   0  0  0  0  0  0  0  0  0  0  0  0
  -21.2600   53.4392    8.8969 H   0  0  0  0  0  0  0  0  0  0  0  0
  -22.7792   55.3630    9.1161 H   0  0  0  0  0  0  0  0  0  0  0  0
  -24.6815   55.2827   10.7073 H   0  0  0  0  0  0  0  0  0  0  0  0
  -21.5309   50.9570    8.0609 H   0  0  0  0  0  0  0  0  0  0  0  0
  -20.0373   49.0387    7.8083 H   0  0  0  0  0  0  0  0  0  0  0  0
  -19.5282   48.8909   12.0976 H   0  0  0  0  0  0  0  0  0  0  0  0
  -18.4028   47.2872   10.7931 H   0  0  0  0  0  0  0  0  0  0  0  0
  -16.9162   48.7905    9.5081 H   0  0  0  0  0  0  0  0  0  0  0  0
  -16.7804   47.1041    8.9766 H   0  0  0  0  0  0  0  0  0  0  0  0
  -17.6666   48.2688    7.9920 H   0  0  0  0  0  0  0  0  0  0  0  0
  -20.5186   44.9785    9.4971 H   0  0  0  0  0  0  0  0  0  0  0  0
  1  2  4  0
  1  6  4  0
  2  3  4  0
  3  4  4  0
  3  7  1  0
  4  5  4  0
  5  6  4  0
  7  8  4  0
  7 12  4  0
  8  9  4  0
  9 10  4  0
 10 11  4  0
 10 13  1  0
 11 12  4  0
 12 18  1  0
 13 14  1  0
 13 15  1  0
 15 16  2  0
 15 17  1  0
  1 19  1  0
  2 20  1  0
  4 21  1  0
  5 22  1  0
  6 23  1  0
  8 24  1  0
  9 25  1  0
 11 26  1  0
 13 27  1  1
 14 28  1  0
 14 29  1  0
 14 30  1  0
 17 31  1  0
M  END
>  <model_server_result.job_id>  (1) 
xf2pR2iHGUPpQH_IdyZDIw

>  <model_server_result.datetime_utc>  (1) 
2026-05-11 10:00:25

>  <model_server_result.server_version>  (1) 
0.9.12

>  <model_server_result.query_name>  (1) 
ligand

>  <model_server_result.source_id>  (1) 
pdb-bcif

>  <model_server_result.entry_id>  (1) 
3n8z

>  <model_server_params.name>  (1) 
atom_site

>  <model_server_params.value>  (1) 
{"label_asym_id":"L","auth_seq_id":701}

>  <model_server_stats.io_time_ms>  (1) 
33

>  <model_server_stats.parse_time_ms>  (1) 
10

>  <model_server_stats.create_model_time_ms>  (1) 
17

>  <model_server_stats.query_time_ms>  (1) 
277

>  <model_server_stats.encode_time_ms>  (1) 
0

>  <model_server_stats.element_count>  (1) 
18

$$$$
