FLP
  PyMOL3.1          3D                             0

 22 23  0  0  0  0  0  0  0  0999 V2000
  -18.9874   47.9542    9.8197 H   0  0  0  0  0  0  0  0  0  0  0  0
  -24.2262   53.2890   11.3804 C   0  0  0  0  0  0  0  0  0  0  0  0
  -23.3689   52.1919   11.2561 C   0  0  0  0  0  0  0  0  0  0  0  0
  -22.2868   52.2117   10.3598 C   0  0  0  0  0  0  0  0  0  0  0  0
  -22.0940   53.3744    9.5929 C   0  0  0  0  0  0  0  0  0  0  0  0
  -22.9499   54.4728    9.7159 C   0  0  0  0  0  0  0  0  0  0  0  0
  -24.0165   54.4288   10.6093 C   0  0  0  0  0  0  0  0  0  0  0  0
  -21.3882   51.0513   10.2206 C   0  0  0  0  0  0  0  0  0  0  0  0
  -21.0874   50.5208    8.9546 C   0  0  0  0  0  0  0  0  0  0  0  0
  -20.2349   49.4188    8.8101 C   0  0  0  0  0  0  0  0  0  0  0  0
  -19.6536   48.8097    9.9310 C   0  0  0  0  0  0  0  0  0  0  0  0
  -19.9506   49.3284   11.1970 C   0  0  0  0  0  0  0  0  0  0  0  0
  -20.8020   50.4272   11.3310 C   0  0  0  0  0  0  0  0  0  0  0  0
  -21.0408   50.8842   12.5707 F   0  0  0  0  0  0  0  0  0  0  0  0
  -25.0557   53.2505   12.0815 H   0  0  0  0  0  0  0  0  0  0  0  0
  -23.5552   51.3114   11.8684 H   0  0  0  0  0  0  0  0  0  0  0  0
  -21.2600   53.4392    8.8969 H   0  0  0  0  0  0  0  0  0  0  0  0
  -22.7792   55.3630    9.1161 H   0  0  0  0  0  0  0  0  0  0  0  0
  -24.6815   55.2827   10.7073 H   0  0  0  0  0  0  0  0  0  0  0  0
  -21.5309   50.9570    8.0609 H   0  0  0  0  0  0  0  0  0  0  0  0
  -20.0373   49.0387    7.8083 H   0  0  0  0  0  0  0  0  0  0  0  0
  -19.5282   48.8909   12.0976 H   0  0  0  0  0  0  0  0  0  0  0  0
  2  3  4  0  0  0  0
  2  7  4  0  0  0  0
  2 15  1  0  0  0  0
  3  4  4  0  0  0  0
  3 16  1  0  0  0  0
  4  5  4  0  0  0  0
  4  8  1  0  0  0  0
  5  6  4  0  0  0  0
  5 17  1  0  0  0  0
  6  7  4  0  0  0  0
  6 18  1  0  0  0  0
  7 19  1  0  0  0  0
  8  9  4  0  0  0  0
  8 13  4  0  0  0  0
  9 10  4  0  0  0  0
  9 20  1  0  0  0  0
 10 11  4  0  0  0  0
 10 21  1  0  0  0  0
  1 11  1  0  0  0  0
 11 12  4  0  0  0  0
 12 13  4  0  0  0  0
 12 22  1  0  0  0  0
 13 14  1  0  0  0  0
M  END
>  <model_server_result.job_id>
xf2pR2iHGUPpQH_IdyZDIw

>  <model_server_result.datetime_utc>
2026-05-11 10:00:25

>  <model_server_result.server_version>
0.9.12

>  <model_server_result.query_name>
ligand

>  <model_server_result.source_id>
pdb-bcif

>  <model_server_result.entry_id>
3n8z

>  <model_server_params.name>
atom_site

>  <model_server_params.value>


>  <id":"L","auth_seq_id":701}>


>  <model_server_stats.io_time_ms>
33

>  <model_server_stats.parse_time_ms>
10

>  <model_server_stats.create_model_time_ms>
17

>  <model_server_stats.query_time_ms>
277

>  <model_server_stats.encode_time_ms>
0

>  <model_server_stats.element_count>
18

$$$$
