RAL
     RDKit          3D

 61 65  0  0  0  0  0  0  0  0999 V2000
   -2.9482  -27.7872   27.7611 C   0  0  0  0  0  0  0  0  0  0  0  0
   -2.6500  -26.5256   28.2829 C   0  0  0  0  0  0  0  0  0  0  0  0
   -1.3525  -26.2211   28.6503 C   0  0  0  0  0  0  0  0  0  0  0  0
   -1.1148  -24.9753   29.1544 O   0  0  0  0  0  0  0  0  0  0  0  0
   -0.3232  -27.1493   28.5138 C   0  0  0  0  0  0  0  0  0  0  0  0
   -0.6340  -28.4205   27.9870 C   0  0  0  0  0  0  0  0  0  0  0  0
    0.4603  -29.7186   27.7332 S   0  0  0  0  0  0  0  0  0  0  0  0
   -0.7613  -30.7506   27.1321 C   0  0  0  0  0  0  0  0  0  0  0  0
   -0.4108  -32.1364   26.7984 C   0  0  0  0  0  0  0  0  0  0  0  0
   -1.0356  -33.1974   27.4702 C   0  0  0  0  0  0  0  0  0  0  0  0
   -0.7389  -34.5195   27.1337 C   0  0  0  0  0  0  0  0  0  0  0  0
    0.1815  -34.7838   26.1273 C   0  0  0  0  0  0  0  0  0  0  0  0
    0.4380  -36.0889   25.8289 O   0  0  0  0  0  0  0  0  0  0  0  0
    0.8159  -33.7475   25.4508 C   0  0  0  0  0  0  0  0  0  0  0  0
    0.5195  -32.4240   25.7881 C   0  0  0  0  0  0  0  0  0  0  0  0
   -1.9316  -28.7656   27.6028 C   0  0  0  0  0  0  0  0  0  0  0  0
   -1.9930  -30.1127   27.0723 C   0  0  0  0  0  0  0  0  0  0  0  0
   -3.2186  -30.7414   26.5760 C   0  0  0  0  0  0  0  0  0  0  0  0
   -4.2582  -30.7372   27.2295 O   0  0  0  0  0  0  0  0  0  0  0  0
   -3.2116  -31.3888   25.2346 C   0  0  0  0  0  0  0  0  0  0  0  0
   -2.4189  -30.9078   24.1872 C   0  0  0  0  0  0  0  0  0  0  0  0
   -2.4396  -31.5539   22.9485 C   0  0  0  0  0  0  0  0  0  0  0  0
   -3.2524  -32.6716   22.7376 C   0  0  0  0  0  0  0  0  0  0  0  0
   -4.0584  -33.1371   23.7768 C   0  0  0  0  0  0  0  0  0  0  0  0
   -4.0435  -32.4938   25.0195 C   0  0  0  0  0  0  0  0  0  0  0  0
   -3.1677  -33.2064   21.4826 O   0  0  0  0  0  0  0  0  0  0  0  0
   -3.9868  -34.3456   21.2016 C   0  0  0  0  0  0  0  0  0  0  0  0
   -3.7593  -34.7927   19.7444 C   0  0  0  0  0  0  0  0  0  0  0  0
   -4.6229  -34.1243   18.7432 N   0  0  0  0  0  0  0  0  0  0  0  0
   -4.4163  -34.7434   17.4222 C   0  0  0  0  0  0  0  0  0  0  0  0
   -5.3281  -34.1275   16.3612 C   0  0  0  0  0  0  0  0  0  0  0  0
   -5.1300  -32.6203   16.2743 C   0  0  0  0  0  0  0  0  0  0  0  0
   -5.2779  -31.9904   17.6525 C   0  0  0  0  0  0  0  0  0  0  0  0
   -4.3772  -32.6736   18.6849 C   0  0  0  0  0  0  0  0  0  0  0  0
   -3.9750  -28.0184   27.4832 H   0  0  0  0  0  0  0  0  0  0  0  0
   -3.4387  -25.7876   28.4026 H   0  0  0  0  0  0  0  0  0  0  0  0
   -0.1767  -24.9092   29.3972 H   0  0  0  0  0  0  0  0  0  0  0  0
    0.6956  -26.9154   28.8032 H   0  0  0  0  0  0  0  0  0  0  0  0
   -1.7566  -33.0035   28.2621 H   0  0  0  0  0  0  0  0  0  0  0  0
   -1.2249  -35.3389   27.6558 H   0  0  0  0  0  0  0  0  0  0  0  0
    1.1019  -36.1210   25.1207 H   0  0  0  0  0  0  0  0  0  0  0  0
    1.5344  -33.9458   24.6619 H   0  0  0  0  0  0  0  0  0  0  0  0
    1.0108  -31.6187   25.2466 H   0  0  0  0  0  0  0  0  0  0  0  0
   -1.7869  -30.0328   24.3130 H   0  0  0  0  0  0  0  0  0  0  0  0
   -1.8189  -31.1816   22.1367 H   0  0  0  0  0  0  0  0  0  0  0  0
   -4.7107  -33.9959   23.6574 H   0  0  0  0  0  0  0  0  0  0  0  0
   -4.6778  -32.8651   25.8224 H   0  0  0  0  0  0  0  0  0  0  0  0
   -3.6852  -35.1690   21.8610 H   0  0  0  0  0  0  0  0  0  0  0  0
   -5.0476  -34.1195   21.3653 H   0  0  0  0  0  0  0  0  0  0  0  0
   -2.7013  -34.6708   19.4782 H   0  0  0  0  0  0  0  0  0  0  0  0
   -3.9895  -35.8652   19.7098 H   0  0  0  0  0  0  0  0  0  0  0  0
   -3.3690  -34.6452   17.1070 H   0  0  0  0  0  0  0  0  0  0  0  0
   -4.6401  -35.8159   17.4768 H   0  0  0  0  0  0  0  0  0  0  0  0
   -5.1227  -34.5841   15.3864 H   0  0  0  0  0  0  0  0  0  0  0  0
   -6.3757  -34.3472   16.6032 H   0  0  0  0  0  0  0  0  0  0  0  0
   -4.1315  -32.4028   15.8760 H   0  0  0  0  0  0  0  0  0  0  0  0
   -5.8567  -32.1839   15.5803 H   0  0  0  0  0  0  0  0  0  0  0  0
   -5.0340  -30.9233   17.5988 H   0  0  0  0  0  0  0  0  0  0  0  0
   -6.3243  -32.0624   17.9760 H   0  0  0  0  0  0  0  0  0  0  0  0
   -4.5978  -32.2102   19.6519 H   0  0  0  0  0  0  0  0  0  0  0  0
   -3.3250  -32.4667   18.4501 H   0  0  0  0  0  0  0  0  0  0  0  0
  1  2  4  0
  1 16  4  0
  2  3  4  0
  3  4  1  0
  3  5  4  0
  5  6  4  0
  6  7  4  0
  6 16  4  0
  7  8  4  0
  8  9  1  0
  8 17  4  0
  9 10  4  0
  9 15  4  0
 10 11  4  0
 11 12  4  0
 12 13  1  0
 12 14  4  0
 14 15  4  0
 16 17  4  0
 17 18  1  0
 18 19  2  0
 18 20  1  0
 20 21  4  0
 20 25  4  0
 21 22  4  0
 22 23  4  0
 23 24  4  0
 23 26  1  0
 24 25  4  0
 26 27  1  0
 27 28  1  0
 28 29  1  0
 29 30  1  0
 29 34  1  0
 30 31  1  0
 31 32  1  0
 32 33  1  0
 33 34  1  0
  1 35  1  0
  2 36  1  0
  4 37  1  0
  5 38  1  0
 10 39  1  0
 11 40  1  0
 13 41  1  0
 14 42  1  0
 15 43  1  0
 21 44  1  0
 22 45  1  0
 24 46  1  0
 25 47  1  0
 27 48  1  0
 27 49  1  0
 28 50  1  0
 28 51  1  0
 30 52  1  0
 30 53  1  0
 31 54  1  0
 31 55  1  0
 32 56  1  0
 32 57  1  0
 33 58  1  0
 33 59  1  0
 34 60  1  0
 34 61  1  0
M  END
>  <model_server_result.job_id>  (1) 
kRWpRcSTO1u8a-U6DJqWQQ

>  <model_server_result.datetime_utc>  (1) 
2026-05-05 07:10:28

>  <model_server_result.server_version>  (1) 
0.9.12

>  <model_server_result.query_name>  (1) 
ligand

>  <model_server_result.source_id>  (1) 
pdb-bcif

>  <model_server_result.entry_id>  (1) 
7kbs

>  <model_server_params.name>  (1) 
atom_site

>  <model_server_params.value>  (1) 
{"label_asym_id":"C","auth_seq_id":601}

>  <model_server_stats.io_time_ms>  (1) 
20

>  <model_server_stats.parse_time_ms>  (1) 
8

>  <model_server_stats.create_model_time_ms>  (1) 
4

>  <model_server_stats.query_time_ms>  (1) 
251

>  <model_server_stats.encode_time_ms>  (1) 
0

>  <model_server_stats.element_count>  (1) 
34

$$$$
