AQ4
     RDKit          3D

 52 54  0  0  0  0  0  0  0  0999 V2000
   29.4051   -2.2251   53.9015 C   0  0  0  0  0  0  0  0  0  0  0  0
   28.7371   -1.2360   53.7698 C   0  0  0  0  0  0  0  0  0  0  0  0
   27.9396   -0.0579   53.6129 C   0  0  0  0  0  0  0  0  0  0  0  0
   26.5440   -0.1567   53.5747 C   0  0  0  0  0  0  0  0  0  0  0  0
   25.7430    0.9842   53.4372 C   0  0  0  0  0  0  0  0  0  0  0  0
   24.3349    0.9225   53.3251 N   0  0  0  0  0  0  0  0  0  0  0  0
   23.4458   -0.0433   53.8720 C   0  0  0  0  0  0  0  0  0  0  0  0
   22.1153   -0.0806   53.4067 C   0  0  0  0  0  0  0  0  0  0  0  0
   21.5877    0.7435   52.3789 C   0  0  0  0  0  0  0  0  0  0  0  0
   20.2593    0.6278   51.9759 C   0  0  0  0  0  0  0  0  0  0  0  0
   19.8670    1.4691   50.9719 O   0  0  0  0  0  0  0  0  0  0  0  0
   19.1581    0.8108   49.9083 C   0  0  0  0  0  0  0  0  0  0  0  0
   19.3357    1.6181   48.6187 C   0  0  0  0  0  0  0  0  0  0  0  0
   18.4294    2.7233   48.5173 O   0  0  0  0  0  0  0  0  0  0  0  0
   18.7385    3.7940   49.3991 C   0  0  0  0  0  0  0  0  0  0  0  0
   19.4324   -0.2737   52.6397 C   0  0  0  0  0  0  0  0  0  0  0  0
   18.1045   -0.4098   52.3384 O   0  0  0  0  0  0  0  0  0  0  0  0
   17.3332    0.5878   53.0329 C   0  0  0  0  0  0  0  0  0  0  0  0
   15.8514    0.3384   52.7569 C   0  0  0  0  0  0  0  0  0  0  0  0
   15.4147   -0.8021   53.5033 O   0  0  0  0  0  0  0  0  0  0  0  0
   14.0558   -1.1172   53.2317 C   0  0  0  0  0  0  0  0  0  0  0  0
   19.9562   -1.1100   53.6284 C   0  0  0  0  0  0  0  0  0  0  0  0
   21.2849   -1.0294   54.0215 C   0  0  0  0  0  0  0  0  0  0  0  0
   21.7180   -1.8553   54.9768 N   0  0  0  0  0  0  0  0  0  0  0  0
   23.0032   -1.7472   55.3277 C   0  0  0  0  0  0  0  0  0  0  0  0
   23.8879   -0.8830   54.8248 N   0  0  0  0  0  0  0  0  0  0  0  0
   26.3832    2.2237   53.2749 C   0  0  0  0  0  0  0  0  0  0  0  0
   27.7763    2.3288   53.3123 C   0  0  0  0  0  0  0  0  0  0  0  0
   28.5548    1.1873   53.4878 C   0  0  0  0  0  0  0  0  0  0  0  0
   29.9947   -3.1041   54.0189 H   0  0  0  0  0  0  0  0  0  0  0  0
   26.0846   -1.1391   53.6469 H   0  0  0  0  0  0  0  0  0  0  0  0
   23.9153    1.8413   53.4209 H   0  0  0  0  0  0  0  0  0  0  0  0
   22.2253    1.4587   51.8647 H   0  0  0  0  0  0  0  0  0  0  0  0
   19.5643   -0.1958   49.7480 H   0  0  0  0  0  0  0  0  0  0  0  0
   18.0937    0.7575   50.1560 H   0  0  0  0  0  0  0  0  0  0  0  0
   20.3655    1.9745   48.5016 H   0  0  0  0  0  0  0  0  0  0  0  0
   19.1059    0.9683   47.7679 H   0  0  0  0  0  0  0  0  0  0  0  0
   18.4809    3.5317   50.4284 H   0  0  0  0  0  0  0  0  0  0  0  0
   19.7935    4.0745   49.3256 H   0  0  0  0  0  0  0  0  0  0  0  0
   18.1305    4.6562   49.1111 H   0  0  0  0  0  0  0  0  0  0  0  0
   17.5265    0.5283   54.1114 H   0  0  0  0  0  0  0  0  0  0  0  0
   17.6026    1.5832   52.6609 H   0  0  0  0  0  0  0  0  0  0  0  0
   15.2675    1.2091   53.0746 H   0  0  0  0  0  0  0  0  0  0  0  0
   15.6906    0.1560   51.6882 H   0  0  0  0  0  0  0  0  0  0  0  0
   13.7764   -1.9853   53.8347 H   0  0  0  0  0  0  0  0  0  0  0  0
   13.4066   -0.2791   53.5028 H   0  0  0  0  0  0  0  0  0  0  0  0
   13.9250   -1.3693   52.1750 H   0  0  0  0  0  0  0  0  0  0  0  0
   19.3042   -1.8350   54.1109 H   0  0  0  0  0  0  0  0  0  0  0  0
   23.3610   -2.4234   56.0965 H   0  0  0  0  0  0  0  0  0  0  0  0
   25.7997    3.1280   53.1212 H   0  0  0  0  0  0  0  0  0  0  0  0
   28.2524    3.2990   53.1987 H   0  0  0  0  0  0  0  0  0  0  0  0
   29.6383    1.2718   53.5149 H   0  0  0  0  0  0  0  0  0  0  0  0
  1  2  3  0
  2  3  1  0
  3  4  4  0
  3 29  4  0
  4  5  4  0
  5  6  1  0
  5 27  4  0
  6  7  1  0
  7  8  4  0
  7 26  4  0
  8  9  4  0
  8 23  4  0
  9 10  4  0
 10 11  1  0
 10 16  4  0
 11 12  1  0
 12 13  1  0
 13 14  1  0
 14 15  1  0
 16 17  1  0
 16 22  4  0
 17 18  1  0
 18 19  1  0
 19 20  1  0
 20 21  1  0
 22 23  4  0
 23 24  4  0
 24 25  4  0
 25 26  4  0
 27 28  4  0
 28 29  4  0
  1 30  1  0
  4 31  1  0
  6 32  1  0
  9 33  1  0
 12 34  1  0
 12 35  1  0
 13 36  1  0
 13 37  1  0
 15 38  1  0
 15 39  1  0
 15 40  1  0
 18 41  1  0
 18 42  1  0
 19 43  1  0
 19 44  1  0
 21 45  1  0
 21 46  1  0
 21 47  1  0
 22 48  1  0
 25 49  1  0
 27 50  1  0
 28 51  1  0
 29 52  1  0
M  END
>  <model_server_result.job_id>  (1) 
LQIBByh06_JK2uyPwaURmA

>  <model_server_result.datetime_utc>  (1) 
2026-04-27 09:45:40

>  <model_server_result.server_version>  (1) 
0.9.12

>  <model_server_result.query_name>  (1) 
ligand

>  <model_server_result.source_id>  (1) 
pdb-bcif

>  <model_server_result.entry_id>  (1) 
1m17

>  <model_server_params.name>  (1) 
atom_site

>  <model_server_params.value>  (1) 
{"label_asym_id":"B","auth_seq_id":999}

>  <model_server_stats.io_time_ms>  (1) 
20

>  <model_server_stats.parse_time_ms>  (1) 
7

>  <model_server_stats.create_model_time_ms>  (1) 
4

>  <model_server_stats.query_time_ms>  (1) 
183

>  <model_server_stats.encode_time_ms>  (1) 
0

>  <model_server_stats.element_count>  (1) 
29

$$$$
