FVX
     RDKit          3D

 43 43  0  0  0  0  0  0  0  0999 V2000
   35.6722  180.5258  143.4283 C   0  0  0  0  0  0  0  0  0  0  0  0
   36.2664  181.7722  143.7635 O   0  0  0  0  0  0  0  0  0  0  0  0
   36.3927  182.6538  142.6485 C   0  0  0  0  0  0  0  0  0  0  0  0
   35.0936  183.4220  142.4109 C   0  0  0  0  0  0  0  0  0  0  0  0
   35.2333  184.4142  141.2572 C   0  0  0  0  0  0  0  0  0  0  0  0
   33.9451  185.1901  140.9657 C   0  0  0  0  0  0  0  0  0  0  0  0
   33.6459  186.2666  142.0124 C   0  0  0  0  0  0  0  0  0  0  0  0
   34.3031  187.3918  142.0670 N   0  0  0  0  0  0  0  0  0  0  0  0
   35.2716  187.4930  141.0597 O   0  0  0  0  0  0  0  0  0  0  0  0
   36.0155  188.6978  141.2630 C   0  0  0  0  0  0  0  0  0  0  0  0
   36.9916  188.8823  140.0977 C   0  0  0  0  0  0  0  0  0  0  0  0
   38.0523  187.8686  140.0906 N   0  0  0  0  0  0  0  0  0  0  0  0
   32.5440  186.0466  143.0171 C   0  0  0  0  0  0  0  0  0  0  0  0
   31.8959  184.8177  143.1837 C   0  0  0  0  0  0  0  0  0  0  0  0
   30.8773  184.6714  144.1347 C   0  0  0  0  0  0  0  0  0  0  0  0
   30.4800  185.7516  144.9351 C   0  0  0  0  0  0  0  0  0  0  0  0
   31.1356  186.9787  144.7777 C   0  0  0  0  0  0  0  0  0  0  0  0
   32.1532  187.1234  143.8287 C   0  0  0  0  0  0  0  0  0  0  0  0
   29.3975  185.5834  145.9738 C   0  0  0  0  0  0  0  0  0  0  0  0
   28.7090  186.7326  146.2208 F   0  0  0  0  0  0  0  0  0  0  0  0
   28.4606  184.6592  145.6202 F   0  0  0  0  0  0  0  0  0  0  0  0
   29.8906  185.1753  147.1748 F   0  0  0  0  0  0  0  0  0  0  0  0
   35.6430  179.9080  144.3301 H   0  0  0  0  0  0  0  0  0  0  0  0
   34.6480  180.6614  143.0713 H   0  0  0  0  0  0  0  0  0  0  0  0
   36.2696  180.0066  142.6727 H   0  0  0  0  0  0  0  0  0  0  0  0
   37.1919  183.3617  142.8940 H   0  0  0  0  0  0  0  0  0  0  0  0
   36.7081  182.1030  141.7544 H   0  0  0  0  0  0  0  0  0  0  0  0
   34.2794  182.7208  142.1982 H   0  0  0  0  0  0  0  0  0  0  0  0
   34.8184  183.9410  143.3362 H   0  0  0  0  0  0  0  0  0  0  0  0
   36.0573  185.1030  141.4742 H   0  0  0  0  0  0  0  0  0  0  0  0
   35.5135  183.8634  140.3507 H   0  0  0  0  0  0  0  0  0  0  0  0
   34.0472  185.6940  139.9958 H   0  0  0  0  0  0  0  0  0  0  0  0
   33.1039  184.5063  140.8316 H   0  0  0  0  0  0  0  0  0  0  0  0
   35.3222  189.5465  141.2920 H   0  0  0  0  0  0  0  0  0  0  0  0
   36.5503  188.6429  142.2184 H   0  0  0  0  0  0  0  0  0  0  0  0
   36.4457  188.8165  139.1499 H   0  0  0  0  0  0  0  0  0  0  0  0
   37.4555  189.8716  140.1595 H   0  0  0  0  0  0  0  0  0  0  0  0
   37.6172  186.9457  140.1276 H   0  0  0  0  0  0  0  0  0  0  0  0
   38.5575  187.9157  139.2073 H   0  0  0  0  0  0  0  0  0  0  0  0
   32.1654  183.9427  142.6026 H   0  0  0  0  0  0  0  0  0  0  0  0
   30.3939  183.7013  144.2497 H   0  0  0  0  0  0  0  0  0  0  0  0
   30.8592  187.8337  145.3937 H   0  0  0  0  0  0  0  0  0  0  0  0
   32.6399  188.0926  143.7308 H   0  0  0  0  0  0  0  0  0  0  0  0
  1  2  1  0
  2  3  1  0
  3  4  1  0
  4  5  1  0
  5  6  1  0
  6  7  1  0
  7  8  2  0
  7 13  1  0
  8  9  1  0
  9 10  1  0
 10 11  1  0
 11 12  1  0
 13 14  4  0
 13 18  4  0
 14 15  4  0
 15 16  4  0
 16 17  4  0
 16 19  1  0
 17 18  4  0
 19 21  1  0
 19 20  1  0
 19 22  1  0
  1 23  1  0
  1 24  1  0
  1 25  1  0
  3 26  1  0
  3 27  1  0
  4 28  1  0
  4 29  1  0
  5 30  1  0
  5 31  1  0
  6 32  1  0
  6 33  1  0
 10 34  1  0
 10 35  1  0
 11 36  1  0
 11 37  1  0
 12 38  1  0
 12 39  1  0
 14 40  1  0
 15 41  1  0
 17 42  1  0
 18 43  1  0
M  END
>  <model_server_result.job_id>  (1) 
4oXBsxoFbqJ_B5qN-PUKyQ

>  <model_server_result.datetime_utc>  (1) 
2026-04-27 11:14:08

>  <model_server_result.server_version>  (1) 
0.9.12

>  <model_server_result.query_name>  (1) 
ligand

>  <model_server_result.source_id>  (1) 
pdb-bcif

>  <model_server_result.entry_id>  (1) 
6awp

>  <model_server_params.name>  (1) 
atom_site

>  <model_server_params.value>  (1) 
{"label_asym_id":"D","auth_seq_id":701}

>  <model_server_stats.io_time_ms>  (1) 
16

>  <model_server_stats.parse_time_ms>  (1) 
9

>  <model_server_stats.create_model_time_ms>  (1) 
9

>  <model_server_stats.query_time_ms>  (1) 
215

>  <model_server_stats.encode_time_ms>  (1) 
0

>  <model_server_stats.element_count>  (1) 
22

$$$$
