FVX
  PyMOL3.1          3D                             0

 12 12  0  0  0  0  0  0  0  0999 V2000
   33.3334  186.1650  142.2749 H   0  0  0  0  0  0  0  0  0  0  0  0
   29.6778  185.6386  145.6644 H   0  0  0  0  0  0  0  0  0  0  0  0
   32.5440  186.0466  143.0171 C   0  0  0  0  0  0  0  0  0  0  0  0
   31.8959  184.8177  143.1837 C   0  0  0  0  0  0  0  0  0  0  0  0
   30.8773  184.6714  144.1347 C   0  0  0  0  0  0  0  0  0  0  0  0
   30.4800  185.7516  144.9351 C   0  0  0  0  0  0  0  0  0  0  0  0
   31.1356  186.9787  144.7777 C   0  0  0  0  0  0  0  0  0  0  0  0
   32.1532  187.1234  143.8287 C   0  0  0  0  0  0  0  0  0  0  0  0
   32.1654  183.9427  142.6026 H   0  0  0  0  0  0  0  0  0  0  0  0
   30.3939  183.7013  144.2497 H   0  0  0  0  0  0  0  0  0  0  0  0
   30.8592  187.8337  145.3937 H   0  0  0  0  0  0  0  0  0  0  0  0
   32.6399  188.0926  143.7308 H   0  0  0  0  0  0  0  0  0  0  0  0
  1  3  1  0  0  0  0
  3  4  4  0  0  0  0
  3  8  4  0  0  0  0
  4  5  4  0  0  0  0
  4  9  1  0  0  0  0
  5  6  4  0  0  0  0
  5 10  1  0  0  0  0
  2  6  1  0  0  0  0
  6  7  4  0  0  0  0
  7  8  4  0  0  0  0
  7 11  1  0  0  0  0
  8 12  1  0  0  0  0
M  END
>  <model_server_result.job_id>
4oXBsxoFbqJ_B5qN-PUKyQ

>  <model_server_result.datetime_utc>
2026-04-27 11:14:08

>  <model_server_result.server_version>
0.9.12

>  <model_server_result.query_name>
ligand

>  <model_server_result.source_id>
pdb-bcif

>  <model_server_result.entry_id>
6awp

>  <model_server_params.name>
atom_site

>  <model_server_params.value>


>  <id":"D","auth_seq_id":701}>


>  <model_server_stats.io_time_ms>
16

>  <model_server_stats.parse_time_ms>
9

>  <model_server_stats.create_model_time_ms>
9

>  <model_server_stats.query_time_ms>
215

>  <model_server_stats.encode_time_ms>
0

>  <model_server_stats.element_count>
22

$$$$
